Circuit: * C:\Users\Henry\Downloads\A1_LTSpiceTemplate (1)\A1_LTSpiceTemplate\E344_Ass1_CurrSense.asc

Direct Newton iteration for .op point succeeded.

Date: Sun Jul 24 17:04:43 2022
Total elapsed time: 0.402 seconds.

tnom = 27
temp = 27
method = modified trap
totiter = 36506
traniter = 36475
tranpoints = 15960
accept = 10411
rejected = 5549
matrix size = 18
fillins = 12
solver = Normal
Matrix Compiler1: 1.73 KB object code size  0.5/0.4/[0.2]
Matrix Compiler2: 1.57 KB object code size  0.3/0.4/[0.2]

